   26
   -31.556105865991
 P   1.93598670677119  -0.06650004569184  -2.92553676352909
 C   0.24304812140403   0.04659615880927  -2.14650294250502
 H   0.39919074485388   0.07312526598332  -1.06421544684649
 H  -0.25614372192721   0.97488071232061  -2.43707206830089
 C  -0.60821152362949  -1.16231244488181  -2.50929719280976
 H  -0.10298046087550  -2.08188980024698  -2.22004015285307
 H  -0.78649190319381  -1.19715226498152  -3.58291874305978
 H  -1.56985328710345  -1.12195554848308  -2.00001094532959
 C   1.47844843295502   0.00574363207588  -4.70785819079013
 C   2.16181019321490  -0.85149179275675  -5.56321194102910
 C   0.51556535989549   0.85711537975216  -5.23760584925130
 C   1.89482191964505  -0.85832114751824  -6.92049516338880
 C   0.24546839926497   0.84851703787233  -6.59365765310476
 C   0.93394290797406  -0.00699341736828  -7.43812942757887
 H   2.90778230806079  -1.51650431131135  -5.15014233690323
 H  -0.03358030184757   1.53090559454880  -4.59541990061825
 H   2.43403713974364  -1.52839338565765  -7.57451118741666
 H  -0.50663714683551   1.51312633049688  -6.99510767061100
 H   0.71953610194848  -0.00946372387720  -8.49694497225638
 C   2.46099718906623   1.71726117096631  -2.74118303369019
 H   3.32414369212209   1.85195165428767  -3.39986355553825
 H   1.66455692277331   2.38049254432584  -3.08995285072599
 C   2.85009244916605   2.04978123267402  -1.30724468139356
 H   3.62193414253962   1.36779356279125  -0.95602658975196
 H   1.99279274050700   1.96586694608563  -0.64273792723596
 H   3.23386087350861   3.06677065978720  -1.24282081348227
