   26
   -31.557022126876
 P   1.64975373804804  -0.30519223394831  -3.04800654265876
 C   0.79062658765640   0.74900587436184  -1.76956299454967
 H  -0.19729105332593   0.99049642686740  -2.17255361869107
 H   0.65034368533651   0.18722284062955  -0.84237722906047
 C   1.57303324265554   2.02783893882116  -1.50509097333850
 H   1.71308766423239   2.58579217468383  -2.42887713262438
 H   2.55543770914499   1.79497106510763  -1.09691856358223
 H   1.04517960165170   2.66232381282389  -0.79495387524580
 C   3.13186368439409  -0.80238764233837  -2.07433082893316
 C   3.08329964815062  -1.33604935610857  -0.79174592610097
 C   4.36945800633780  -0.62198002153913  -2.68190469084796
 C   4.24963067328654  -1.68058116692914  -0.13405496916736
 C   5.53707659154630  -0.96619787934063  -2.02466491817835
 C   5.47816701493187  -1.49688349440395  -0.74757967011563
 H   2.13455031260691  -1.48717950062300  -0.29617668829442
 H   4.40597078441297  -0.20683304555246  -3.67974303114650
 H   4.20125238020869  -2.09503281683602   0.86316387755203
 H   6.49274293070751  -0.82088853323894  -2.50747383552749
 H   6.38663772774507  -1.76749765794187  -0.22935804850195
 C   0.61839646321175  -1.84694227406234  -2.84062135497710
 H   0.48872353884222  -2.08169892127546  -1.78092773851282
 H  -0.36677903884615  -1.62480267544677  -3.26116589879793
 C   1.24553598495207  -3.02365731392176  -3.57517363676484
 H   2.22284247083721  -3.25696240197029  -3.15519828089790
 H   1.37703998361665  -2.78726096957847  -4.62928490725115
 H   0.61496766765815  -3.90771722823981  -3.49548152378570
