   26
   -31.55566819733
 P   1.90110804518237  -0.28476033452386  -3.02343062429303
 C   0.31997251544820  -0.81647862522716  -2.17922454819574
 H   0.15134792702825  -0.09566844175889  -1.37423289602600
 H  -0.48105840084802  -0.67592464473852  -2.91093611084151
 C   0.28567925400227  -2.23155674284322  -1.61862401598818
 H   1.12510135683323  -2.40024374168043  -0.94627473639451
 H   0.32243694311666  -2.97241082725686  -2.41332205947834
 H  -0.63636610276828  -2.38398789522581  -1.05945096608765
 C   3.06871532503979  -0.75084577666882  -1.68505135924154
 C   4.00376530762215  -1.77634029848730  -1.74215012242873
 C   3.02914688372646   0.05645850655660  -0.54947228017095
 C   4.85268051213215  -2.00889627596668  -0.67314468021511
 C   3.87167233483879  -0.17936279745881   0.51879787849745
 C   4.78631037637255  -1.21876983119839   0.46062459418933
 H   4.08064781853827  -2.40620071665931  -2.61520238100338
 H   2.32508852048751   0.87730662430937  -0.51307748150307
 H   5.57115596517114  -2.81464372492421  -0.72829598780663
 H   3.82151256122523   0.44964430182256   1.39603270829384
 H   5.44907132898818  -1.40651187224497   1.29266645747782
 C   2.07966040165294  -1.68589022030026  -4.23903553719898
 H   2.23238283704446  -2.63649615305926  -3.72359236091016
 H   1.13004500465270  -1.74147878472506  -4.77993876738929
 C   3.20997100143957  -1.41105157478816  -5.22426790616492
 H   4.16034140173340  -1.29650145277971  -4.70632552522534
 H   3.01598451863108  -0.49050690702832  -5.77093207460171
 H   3.30248636270892  -2.22572979314483  -5.94127121729407
