   26
   -31.557021974806
 P   1.69033245081251  -0.31188124583233  -2.83950008393478
 C   0.33554462104752  -0.63425460070150  -1.59684987540474
 H  -0.61310713833827  -0.47540392396088  -2.11801895973608
 H   0.36532181334853  -1.67304016041444  -1.25787386275862
 C   0.44584299165069   0.31701790131653  -0.41344397105291
 H   0.41659738839410   1.35065532259827  -0.75270809998162
 H   1.38506378076536   0.15964673848330   0.11480448434393
 H  -0.37435286708747   0.15940088761452   0.28510189176753
 C   3.14211204925422  -0.87243699902087  -1.85452076754342
 C   3.20704306258723  -2.08345275450332  -1.17524159165917
 C   4.23315693261738  -0.01206207744474  -1.80224506948536
 C   4.34044664462565  -2.42316493103540  -0.45999039899341
 C   5.36787157894329  -0.35118191907117  -1.08725514181018
 C   5.42267999513569  -1.55939856741326  -0.41400951907581
 H   2.37321121031623  -2.77100156433043  -1.19895900187659
 H   4.18148634987953   0.92984021816702  -2.33094296712730
 H   4.38096567057343  -3.36718238785077   0.06512941106746
 H   6.20928751739427   0.32592478240694  -1.05456980234675
 H   6.30605039212566  -1.82951412182093   0.14617811128345
 C   1.43714706732573  -1.83280599658711  -3.89139586364935
 H   1.34357634813271  -2.72158762428056  -3.26188543769954
 H   0.49220450146261  -1.69365489608813  -4.42471076775934
 C   2.57757000673143  -2.00119182765252  -4.88569494670506
 H   3.52082400289626  -2.14693474436067  -4.36128638038614
 H   2.67049409927308  -1.11545581586937  -5.51111419792406
 H   2.40336553013279  -2.86184469234761  -5.52944919155238
