   26
   -31.555663252728
 P   1.58889623243968  -0.47527812906500  -2.98157770698739
 C   3.41621917728635  -0.28320382407978  -3.29054449414339
 H   3.52525889258592   0.60108000835524  -3.92588433619105
 H   3.95615816383051  -0.09977312334753  -2.35922354434217
 C   3.97549651745007  -1.50225670584344  -4.01494994155357
 H   3.46595762994682  -1.64024274420449  -4.96638021676806
 H   3.83141872106480  -2.40611779041756  -3.42594333842547
 H   5.04056962058554  -1.38077092242412  -4.20780693428038
 C   1.53360602153183  -1.38043200463277  -1.38468363658956
 C   0.26064753738909  -1.55770267472400  -0.84538952218336
 C   2.62141033970750  -1.93686335971306  -0.72423177097489
 C   0.08136656762677  -2.23844353260428   0.34254317249156
 C   2.44081220908933  -2.62433428043863   0.46417045713534
 C   1.17560597530614  -2.77258339420611   1.00405577982711
 H  -0.59336458082092  -1.15310449475195  -1.37255875024222
 H   3.61939584116526  -1.84008994710547  -1.12366036951041
 H  -0.91132764690397  -2.35969757520730   0.75187186378996
 H   3.29693289263442  -3.04692683718864   0.97109189178812
 H   1.04101838267170  -3.30824302880577   1.93236836700531
 C   1.21003019983317   1.23176301997138  -2.31979467739305
 H   1.28482456162067   1.91509833071620  -3.17082547602858
 H   0.15975474031855   1.20884062402718  -2.01556856317422
 C   2.06987942169506   1.72552268651989  -1.16449637686619
 H   3.09899891221846   1.88334015629057  -1.47719562124411
 H   2.06081633524303   1.01016942652737  -0.34390995988022
 H   1.68179333448438   2.67392311635191  -0.79571229525992
