   26
   -31.555662584692
 P   1.62335278869825  -0.14433133341605  -3.16587555822953
 C   0.01709517464825  -0.47835604025660  -4.06211630560851
 H  -0.72189566643830   0.19853392704535  -3.62462315334058
 H   0.17249345765265  -0.15921799652631  -5.09698020781156
 C  -0.50450761917026  -1.90802825232760  -4.01936789778305
 H  -0.59536751379116  -2.25445544656113  -2.99136901872072
 H   0.15444489248994  -2.58510886848340  -4.55703390749387
 H  -1.48802964121018  -1.95560687463129  -4.48468699017880
 C   1.18009251079600  -0.90236926740761  -1.55350915651589
 C   1.78543469499845  -2.02066909344923  -0.99439645550915
 C   0.20219945275162  -0.23373994885828  -0.81885926391803
 C   1.39290098173740  -2.47957795913212   0.25165744133116
 C  -0.19361055123771  -0.69537898709708   0.42087788808612
 C   0.40000250501417  -1.82583950448519   0.95935329964168
 H   2.56587544232469  -2.54758105767619  -1.52172277116240
 H  -0.24882603206121   0.65842902479583  -1.23251343361593
 H   1.86804579134752  -3.35503207403109   0.67150175699794
 H  -0.96124715631906  -0.17176825528987   0.97251814193442
 H   0.09513010383748  -2.18991785035129   1.92954722666992
 C   2.68347535457570  -1.45559995056940  -3.96103483298247
 H   2.33925657427048  -2.45553544722488  -3.68806286100304
 H   2.55713452899206  -1.33511096138465  -5.04122376550407
 C   4.15217187879920  -1.26592091310062  -3.59912156043460
 H   4.30110327124195  -1.32510052406161  -2.52264786498506
 H   4.49668098908984  -0.28800930651431  -3.92901422190677
 H   4.76734578696028  -2.02790403900808  -4.07595052795355
