   26
   -31.55610992479
 P   1.60709825457954  -0.33001013688765  -2.97078582087242
 C   2.48916550263709   1.09385444573089  -2.14582796910094
 H   2.49217086031690   0.88222572498498  -1.07279063221102
 H   3.52804966117743   1.15101771189515  -2.48167560647106
 C   1.76493051053969   2.40754996244789  -2.40543469297837
 H   0.73044550721008   2.34205768701153  -2.07361166535321
 H   1.76543148795827   2.64108913600547  -3.46902069438010
 H   2.24761637107827   3.22470623481389  -1.87161238231600
 C   1.81706241146013   0.15360352946710  -4.73543051134016
 C   3.00644119870346   0.61772574932985  -5.28558734524187
 C   0.69857273309679   0.03686926614651  -5.55320145674218
 C   3.07171286668184   0.95576580782455  -6.62471045586839
 C   0.76333514903118   0.37296660148728  -6.89354345128945
 C   1.95232230764325   0.83403322947582  -7.43172006530547
 H   3.89013202184025   0.72263181732913  -4.67230001697124
 H  -0.22735535668557  -0.32066868940888  -5.12410368410475
 H   4.00106157096749   1.31706305782648  -7.04219305400833
 H  -0.11313495772074   0.27738862618048  -7.51816380067004
 H   2.00843394690616   1.09984566243868  -8.47731382457924
 C   2.97245782385565  -1.60310084460392  -2.89413342289377
 H   2.69318445320232  -2.39495148220823  -3.59553603885884
 H   3.91500797680402  -1.16693354575388  -3.23587356771282
 C   3.12571061984129  -2.18438978573230  -1.49511865087289
 H   2.17852589121598  -2.59274596447254  -1.14832188189096
 H   3.44599967584589  -1.42019880103722  -0.79009362376951
 H   3.86626851181349  -2.98268200029076  -1.49317768419699
