   26
   -31.55224630331
 P   1.64321762523862  -0.08922794573863  -2.84967053955005
 C   1.45364285491566  -1.01119014294518  -1.23867422422408
 H   1.98694604762975  -0.41292285352377  -0.49362245236473
 H   0.38892008074597  -0.92657221751484  -0.99560357325255
 C   1.87732671077790  -2.47172463603339  -1.15370512326537
 H   2.90374510387357  -2.60970725429703  -1.48622945368831
 H   1.22655276156086  -3.09963388921578  -1.75714025184991
 H   1.80523379175745  -2.81204590002336  -0.12090445340988
 C   3.43910322848684  -0.18343656868585  -3.18348869417978
 C   3.85142181829420   0.14641053145034  -4.47431833564205
 C   4.40673844214037  -0.41550254162356  -2.21337909280244
 C   5.19225694043190   0.17922485895783  -4.80266486302147
 C   5.75071747509908  -0.38114328525929  -2.54336638777570
 C   6.14803838451403  -0.09586829069468  -3.83771836973069
 H   3.10523421014273   0.38589575377179  -5.22045957068229
 H   4.12152487263118  -0.61907767870699  -1.19232259583662
 H   5.49549994734249   0.42587155053477  -5.81027960670788
 H   6.49249224049628  -0.57573401092942  -1.78158473550080
 H   7.19776103543339  -0.07403129561203  -4.09138762077130
 C   0.98804468553372  -1.34406758042164  -4.08138877090236
 H   0.10298680904291  -1.77408704732937  -3.60300629369964
 H   0.63062591530097  -0.76420766991475  -4.93799806554297
 C   1.91595025840098  -2.44539888522429  -4.57885578570387
 H   2.33011021633624  -3.02758728978555  -3.76165277918771
 H   2.74469440259415  -2.03024934594807  -5.14711940327445
 H   1.35960114127673  -3.11756536528607  -5.23155095743201
