   26
   -31.556009499715
 P   1.66409090453971  -0.25011577258188  -2.91705167418105
 C   1.19200099805226   1.49853586774992  -2.45574680598672
 H   1.34086485502810   1.60047898585374  -1.37731372721733
 H   1.85788562768691   2.20091843214500  -2.96642558448797
 C  -0.25955527795791   1.78766736054464  -2.80933186358339
 H  -0.92089650752785   1.08592863254851  -2.30486278943722
 H  -0.41614916038004   1.69242748172066  -3.88273674345845
 H  -0.53409608487953   2.79768467450707  -2.50916351995260
 C   1.71928420448796  -0.00136147204695  -4.73940348995991
 C   2.69323082630940   0.73056863321023  -5.40817952291646
 C   0.68701697981233  -0.57681226755073  -5.47339233888288
 C   2.63116225962752   0.88244234539729  -6.78166816497052
 C   0.62081505465594  -0.41922189691271  -6.84572211544021
 C   1.59591834774807   0.31142104993989  -7.50306929688602
 H   3.50668683878853   1.18632274539754  -4.86293338556976
 H  -0.06690275172335  -1.15178407093888  -4.95290984657058
 H   3.39456599068869   1.45211184940199  -7.29269983967300
 H  -0.18864612081518  -0.86786718308268  -7.40347726381143
 H   1.55135556057581   0.43518994414350  -8.57533040070850
 C   3.48174903639332  -0.15501708919388  -2.49660201647493
 H   4.00461510682189  -0.85142389637618  -3.15794282551470
 H   3.86751332559157   0.85222914800193  -2.67426206782224
 C   3.71421587110514  -0.55138681394049  -1.04343894148587
 H   3.33924740648627  -1.55606263986149  -0.85977227757687
 H   3.19921600209968   0.13080506119970  -0.36974683508694
 H   4.77650070678397  -0.53011010927659  -0.80528066234486
