   26
   -31.557022057552
 P   1.58859702590996  -0.54502841819442  -2.96857659997350
 C  -0.17730344348013  -0.35884378313084  -2.39343888423371
 H  -0.58603406432492   0.51575932806799  -2.90792810151448
 H  -0.76820048723744  -1.23092945182543  -2.68547332554363
 C  -0.23864907952367  -0.15359131334142  -0.88623484988551
 H   0.34997154394663   0.71468491515322  -0.59651150484458
 H   0.16159857537077  -1.02347656659734  -0.36750000014606
 H  -1.26588726898546   0.00102938963664  -0.56008558445723
 C   1.97348957939366  -2.18073543301421  -2.21469004039931
 C   1.17974621583840  -3.31333377661474  -2.35392783028401
 C   3.13861684648149  -2.26392875056870  -1.46043288817870
 C   1.54678574276245  -4.50190971886596  -1.75046719306793
 C   3.50655023204754  -3.45256381804479  -0.85581413070106
 C   2.70949615069660  -4.57495905907018  -1.00065958381464
 H   0.26878177114473  -3.27660475578394  -2.93474428398716
 H   3.75539005257144  -1.38222413921974  -1.35291760601536
 H   0.92282358133222  -5.37719251279568  -1.86498740174582
 H   4.41427498091729  -3.50432867168269  -0.27196680974471
 H   2.99186100351540  -5.50599932726652  -0.53102662871737
 C   1.23034262823282  -1.09162708660378  -4.71684830485829
 H   0.45610210935546  -1.86321099868150  -4.72631776700714
 H   0.84243669009054  -0.21647200704529  -5.24640913797750
 C   2.49474300013588  -1.59557002075928  -5.39868636288803
 H   2.88252095520540  -2.47181585173110  -4.88115322706057
 H   3.26484770721589  -0.82667851174564  -5.38750954717925
 H   2.29228795138768  -1.86668066027010  -6.43359940577614
