   26
   -31.555667344569
 P   1.89991912824298  -0.41941428150096  -3.15857575166125
 C   2.66978757137225   0.72622676073192  -1.90669896584734
 H   3.73841008039981   0.75709094685739  -2.14026862872585
 H   2.27233900344403   1.73879516236348  -2.00342756634588
 C   2.47420690565232   0.19575342915625  -0.49104078327215
 H   2.92477062365075  -0.78984653075957  -0.39379895546250
 H   1.41655972124576   0.10331141366247  -0.25135871524822
 H   2.93729219710680   0.86069602776643   0.23680710229410
 C   0.16705832683646   0.18065574393597  -3.25429443641265
 C  -0.61757712188681  -0.41594637455230  -4.23979021748849
 C  -0.42081523062131   1.10921455238258  -2.40494672033062
 C  -1.94342258108656  -0.06520593305702  -4.40050300146644
 C  -1.75199259878963   1.45652817573879  -2.56256256447768
 C  -2.51483395130500   0.87791515750256  -3.56128072024223
 H  -0.17318940798217  -1.16373652477230  -4.88335794093385
 H   0.14887399286704   1.57392915625262  -1.61478751280989
 H  -2.53561221045943  -0.53026989978151  -5.17557231738791
 H  -2.19505438712738   2.18550701420218  -1.89865598659843
 H  -3.55213084673110   1.15442857472744  -3.68110398956813
 C   2.53287023229657   0.37672686768035  -4.72731116087123
 H   3.60657498087673   0.17040439231532  -4.76483638749238
 H   2.06983876734389  -0.17305428060965  -5.55155845605400
 C   2.27195314239722   1.86757641495588  -4.89213892608848
 H   2.82728927914310   2.44913153661097  -4.16059428953822
 H   1.21176947375425   2.08807402024351  -4.78015446776089
 H   2.58514790935938   2.18881747794600  -5.88450564020629
