   26
   -31.552639475318
 P   1.61961811782659  -0.51316877639717  -3.21755409533152
 C   2.57475020321754  -1.98547646262013  -3.86575592609072
 H   2.00261835579102  -2.86706733100948  -3.56109571258032
 H   2.48491328388826  -1.91982299267129  -4.95529297418149
 C   4.04753347020493  -2.14691568391443  -3.50484194452715
 H   4.21203135930335  -2.11983869930194  -2.43044110301668
 H   4.64730963037598  -1.36337160220818  -3.96123783855661
 H   4.40706135169460  -3.10495970637074  -3.87915756219333
 C   1.30421723957565  -0.94952722517770  -1.46061100199621
 C   1.81346654658240  -2.05175779425740  -0.78572461815387
 C   0.43025548068955  -0.09803098542781  -0.78700024151849
 C   1.48841968003590  -2.27007770366946   0.54211160555018
 C   0.11134149443998  -0.31208009665182   0.54014338264098
 C   0.64726340318207  -1.39860069077790   1.21164062303131
 H   2.45967951787693  -2.75516984328584  -1.28733106680560
 H  -0.00814151126460   0.73278548261063  -1.32346039621523
 H   1.89569344563760  -3.12904953264369   1.05679515458658
 H  -0.56190361352940   0.36214719365978   1.05009960653451
 H   0.40044979822177  -1.57224586812561   2.24888307403713
 C   3.02430620000172   0.69187711933173  -2.94342790222215
 H   3.76086635529392   0.25620597606489  -2.26447570277659
 H   3.49003136874071   0.83911100696224  -3.92214782045853
 C   2.53921643197592   2.02871762755544  -2.40230353447372
 H   2.13317204114703   1.91299001026926  -1.39949990895323
 H   1.76389814975768   2.44354357449747  -3.04371548637575
 H   3.36411619933322   2.73830400356000  -2.35602660995419
