   26
   -31.552632821296
 P   1.65635771457523  -0.05142356999475  -3.10739295054353
 C   0.27897444130016   1.11718978421968  -3.58329495796227
 H   0.19302866943805   1.82871218968371  -2.75658553557104
 H   0.66822994703358   1.68226877861508  -4.43674439200535
 C  -1.08662392454339   0.54274300512561  -3.94667084140932
 H  -1.44819816258287  -0.15347939324024  -3.19368206552657
 H  -1.04816959199518   0.02300770303584  -4.90068798829675
 H  -1.80896831327807   1.35337291654137  -4.03665429907183
 C   1.10755287489644  -0.70860302549633  -1.48225361381874
 C   1.96972780342628  -1.62451595848407  -0.88099918834543
 C  -0.02395059867183  -0.30493081000893  -0.78347994172768
 C   1.67698698523203  -2.17329509776593   0.35241134247722
 C  -0.31336859089751  -0.84944146670945   0.45603157123133
 C   0.52548654877929  -1.79315543144586   1.02201812496217
 H   2.88674528178692  -1.89264334587623  -1.38728693705710
 H  -0.68583041815171   0.44362163786204  -1.19026774613443
 H   2.35156224149374  -2.89014971979172   0.79853775069701
 H  -1.20108003056075  -0.53056598025060   0.98410748405190
 H   0.29201643933790  -2.21828698433496   1.98722890721009
 C   1.19239368746645  -1.50423227476509  -4.19357033177093
 H   0.20372251271168  -1.87650433235474  -3.91575199211627
 H   1.14342108543831  -1.09962566626595  -5.20904933843457
 C   2.21011875846436  -2.63503936441034  -4.15173256589151
 H   2.19440868348740  -3.13574446442023  -3.18666518882809
 H   3.21408444338455  -2.25432175923816  -4.33013906031465
 H   1.98116251243233  -3.37366437022668  -4.91883624581014
