 26
   -265.342384
P   1.630298   -0.257098   -2.973429
C   0.877214   1.056394   -1.923278
H   1.051638   0.733379   -0.891338
H   1.389994   2.015727   -2.036155
C   -0.615948   1.204740   -2.176641
H   -1.134382   0.256177   -2.021015
H   -0.816625   1.521052   -3.202751
H   -1.057840   1.946318   -1.506894
C   0.447178   -0.412274   -4.361102
C   0.238747   0.730667   -5.134078
C   -0.249162   -1.570475   -4.698001
C   -0.655841   0.726428   -6.191642
C   -1.132473   -1.583985   -5.767735
C   -1.343147   -0.434940   -6.514069
H   0.794746   1.634247   -4.903057
H   -0.109530   -2.477725   -4.122384
H   -0.807113   1.627945   -6.774390
H   -1.661878   -2.497121   -6.015765
H   -2.034810   -0.445890   -7.348430
C   2.996673   0.676541   -3.811423
H   3.905333   0.090720   -3.634711
H   2.789872   0.588667   -4.882502
C   3.205985   2.131170   -3.430300
H   3.495409   2.237233   -2.382875
H   2.296281   2.714697   -3.586599
H   3.998939   2.580220   -4.034327
