 26
   -284.668635
P   1.630298   -0.257098   -2.973429
C   1.906170   -0.046828   -4.783096
H   0.980958   0.398615   -5.164181
H   2.703425   0.670979   -4.995565
C   2.169714   -1.374144   -5.479163
H   1.352044   -2.076381   -5.302974
H   3.085769   -1.842025   -5.111525
H   2.274231   -1.239570   -6.558391
C   3.297540   -0.670321   -2.341734
C   3.361804   -1.208947   -1.056043
C   4.489070   -0.490455   -3.040109
C   4.577054   -1.531954   -0.475025
C   5.706962   -0.829620   -2.468744
C   5.755669   -1.345660   -1.183041
H   2.440394   -1.382439   -0.508444
H   4.477115   -0.078222   -4.042035
H   4.603726   -1.942853   0.527802
H   6.622827   -0.685230   -3.030839
H   6.707703   -1.608585   -0.736751
C   1.495418   1.505688   -2.411923
H   2.361424   2.019435   -2.843401
H   0.621172   1.907288   -2.933565
C   1.392081   1.774444   -0.921251
H   2.291215   1.456502   -0.389664
H   0.541187   1.248169   -0.483633
H   1.259920   2.842338   -0.727843
