 26
   -239.494774
P   1.630298   -0.257098   -2.973429
C   0.714486   -1.215092   -1.693293
H   -0.240268   -1.478520   -2.160961
H   1.211204   -2.159764   -1.454816
C   0.468706   -0.396841   -0.434012
H   -0.066467   0.526324   -0.666649
H   1.407642   -0.116215   0.048560
H   -0.124125   -0.958521   0.291821
C   0.919248   1.422872   -2.826480
C   1.061685   2.054748   -1.590480
C   0.257305   2.107278   -3.842966
C   0.536833   3.317018   -1.366979
C   -0.253977   3.379071   -3.628759
C   -0.121260   3.985538   -2.389290
H   1.599911   1.547184   -0.795715
H   0.131379   1.649155   -4.816721
H   0.653388   3.786089   -0.396619
H   -0.762663   3.896307   -4.434559
H   -0.522647   4.978347   -2.222273
C   3.266201   0.006037   -2.139475
H   3.747950   0.823451   -2.687040
H   3.023557   0.411763   -1.152455
C   4.200201   -1.183632   -2.007780
H   4.522614   -1.554595   -2.982741
H   3.716761   -2.008056   -1.479477
H   5.099699   -0.910709   -1.449490
