 26
   -282.007076
P   1.630298   -0.257098   -2.973429
C   3.144421   -0.830673   -2.093852
H   3.947869   -0.177254   -2.450472
H   3.075840   -0.672558   -1.013898
C   3.474610   -2.281894   -2.411132
H   3.586433   -2.430446   -3.487325
H   2.684224   -2.954278   -2.069935
H   4.405169   -2.589313   -1.928099
C   1.663038   1.555588   -2.723263
C   0.558837   2.269875   -3.189937
C   2.693264   2.263805   -2.109353
C   0.496556   3.648714   -3.073003
C   2.626557   3.642923   -1.973937
C   1.531563   4.340283   -2.460125
H   -0.266143   1.730540   -3.645444
H   3.564356   1.741820   -1.731644
H   -0.368038   4.183877   -3.448885
H   3.437588   4.174991   -1.489438
H   1.481152   5.417875   -2.355591
C   2.172285   -0.352642   -4.744874
H   2.180064   -1.419511   -4.993481
H   1.348990   0.080899   -5.321006
C   3.487644   0.303010   -5.125611
H   4.334959   -0.169328   -4.624545
H   3.491206   1.362591   -4.861471
H   3.661970   0.226408   -6.202186
