 26
   -185.720589
P   1.630298   -0.257098   -2.973429
C   1.502996   0.935183   -4.372526
H   0.824828   0.462485   -5.091072
H   1.026750   1.872210   -4.070578
C   2.852540   1.196708   -5.025266
H   3.308307   0.264664   -5.366345
H   3.549853   1.663362   -4.325827
H   2.751611   1.860016   -5.887590
C   0.701615   0.572026   -1.631942
C   -0.573726   1.039072   -1.952292
C   1.166933   0.767098   -0.333771
C   -1.348893   1.703594   -1.016198
C   0.386446   1.416113   0.611941
C   -0.870810   1.891435   0.272708
H   -0.963454   0.870185   -2.951567
H   2.150841   0.414438   -0.048304
H   -2.334217   2.063968   -1.289108
H   0.765842   1.554462   1.618183
H   -1.479099   2.400013   1.011631
C   0.397403   -1.549306   -3.474493
H   0.818525   -2.028787   -4.364903
H   0.435683   -2.304890   -2.683718
C   -1.035628   -1.112043   -3.719920
H   -1.108805   -0.419551   -4.560880
H   -1.452676   -0.615996   -2.840999
H   -1.669661   -1.972365   -3.950400
