 26
   -261.847401
P   1.630298   -0.257098   -2.973429
C   1.502416   1.428748   -3.706082
H   0.479661   1.757294   -3.492325
H   2.165092   2.142965   -3.209334
C   1.742242   1.418646   -5.208785
H   1.050652   0.737908   -5.709845
H   2.755452   1.088235   -5.448494
H   1.606685   2.414869   -5.636488
C   2.460580   0.045580   -1.370774
C   1.916311   1.046776   -0.565399
C   3.578429   -0.640610   -0.902395
C   2.484918   1.371969   0.655126
C   4.140131   -0.330355   0.327639
C   3.599332   0.680154   1.107454
H   1.027878   1.572243   -0.902343
H   4.025498   -1.426678   -1.499188
H   2.049315   2.158119   1.261286
H   5.008060   -0.879174   0.675637
H   4.039930   0.923139   2.067405
C   -0.108261   -0.541480   -2.392537
H   -0.690070   0.301969   -2.780053
H   -0.455364   -1.420566   -2.944287
C   -0.342880   -0.724273   -0.903729
H   -0.080815   0.173175   -0.339794
H   0.250448   -1.552005   -0.509630
H   -1.395052   -0.940881   -0.700536
