 26
   -225.778878
P   1.630298   -0.257098   -2.973429
C   2.258744   -1.804728   -3.751317
H   1.874441   -2.616855   -3.124879
H   1.839731   -1.961360   -4.749264
C   3.779412   -1.849995   -3.786727
H   4.196708   -1.737489   -2.783747
H   4.187927   -1.044871   -4.401640
H   4.136292   -2.797246   -4.197967
C   1.099434   -0.810342   -1.311625
C   2.021790   -1.558414   -0.578891
C   -0.138702   -0.542501   -0.732746
C   1.709378   -2.047008   0.679052
C   -0.448889   -1.014613   0.534395
C   0.471107   -1.772855   1.241769
H   3.002201   -1.752264   -1.003364
H   -0.878179   0.038416   -1.270931
H   2.438988   -2.631830   1.227563
H   -1.417076   -0.791717   0.968605
H   0.227231   -2.142866   2.230855
C   3.212540   0.608650   -2.539970
H   3.345495   0.457796   -1.463103
H   4.001701   0.023245   -3.021868
C   3.345890   2.076808   -2.902931
H   2.620081   2.693084   -2.368590
H   3.194575   2.233904   -3.972940
H   4.341066   2.450670   -2.647738
