 26
   -231.869075
P   1.630298   -0.257098   -2.973429
C   1.526803   -0.794664   -1.214019
H   2.532933   -0.643353   -0.808469
H   0.859859   -0.155514   -0.628634
C   1.128843   -2.257857   -1.085846
H   1.820946   -2.900111   -1.634723
H   0.129545   -2.435959   -1.489466
H   1.127645   -2.576128   -0.040633
C   3.432735   -0.173444   -3.279546
C   3.840303   0.518114   -4.420987
C   4.412966   -0.739891   -2.468307
C   5.180324   0.617904   -4.757341
C   5.757298   -0.626693   -2.791899
C   6.145046   0.047012   -3.939712
H   3.091080   0.990240   -5.049257
H   4.133575   -1.280904   -1.572104
H   5.473714   1.154187   -5.652625
H   6.504909   -1.071727   -2.144884
H   7.195380   0.133336   -4.192735
C   1.219568   -1.830312   -3.866286
H   0.743491   -2.476540   -3.120756
H   0.429612   -1.561058   -4.574220
C   2.343168   -2.560872   -4.579600
H   3.104617   -2.912729   -3.880668
H   2.833193   -1.913707   -5.310043
H   1.960536   -3.435811   -5.111903
