 26
   -234.283013
P   1.630298   -0.257098   -2.973429
C   0.784962   -1.716783   -3.715008
H   0.831137   -2.495760   -2.946421
H   -0.276534   -1.526967   -3.897217
C   1.477341   -2.195197   -4.982867
H   2.527203   -2.426724   -4.790648
H   1.449836   -1.432281   -5.764167
H   0.998886   -3.094399   -5.378194
C   2.663969   -0.997039   -1.656805
C   3.990729   -1.275457   -1.987625
C   2.230372   -1.297084   -0.367701
C   4.849659   -1.859631   -1.071259
C   3.092473   -1.865505   0.558816
C   4.402427   -2.153938   0.208777
H   4.353201   -1.021665   -2.979172
H   1.207863   -1.091163   -0.074435
H   5.874629   -2.073421   -1.352228
H   2.736091   -2.087890   1.558387
H   5.074699   -2.599739   0.932647
C   2.930670   0.104053   -4.246024
H   3.418428   -0.855532   -4.449412
H   2.379012   0.356146   -5.156970
C   3.956429   1.178922   -3.933796
H   4.575956   0.909806   -3.075964
H   3.473181   2.132565   -3.711241
H   4.626578   1.334170   -4.783543
