 26
   -281.202232
P   1.630298   -0.257098   -2.973429
C   3.371152   -0.838196   -3.137639
H   3.841679   -0.139491   -3.837696
H   3.923087   -0.750251   -2.197619
C   3.451329   -2.255921   -3.684779
H   2.937365   -2.333243   -4.645313
H   2.982745   -2.972179   -3.006082
H   4.489339   -2.564466   -3.830043
C   1.816156   1.536497   -2.660440
C   0.780212   2.358282   -3.106242
C   2.898981   2.132449   -2.018449
C   0.835217   3.732576   -2.941807
C   2.949476   3.506767   -1.835551
C   1.921390   4.311577   -2.301407
H   -0.084757   1.907492   -3.583294
H   3.719709   1.525155   -1.655773
H   0.022077   4.352372   -3.302177
H   3.799730   3.950524   -1.329830
H   1.962558   5.385317   -2.159764
C   1.081790   -0.224833   -4.745150
H   1.030998   -1.273756   -5.057008
H   0.046175   0.128029   -4.718915
C   1.895722   0.595408   -5.729899
H   2.911673   0.209557   -5.835140
H   1.965176   1.637896   -5.412267
H   1.436469   0.578215   -6.721899
