 26
   -257.615563
P   1.630298   -0.257098   -2.973429
C   0.976799   1.352205   -2.358372
H   1.263357   1.392971   -1.302017
H   1.463133   2.203953   -2.842115
C   -0.536475   1.442787   -2.490778
H   -1.024035   0.615765   -1.970122
H   -0.848438   1.398331   -3.536689
H   -0.913913   2.377771   -2.069931
C   1.633648   -0.039752   -4.790635
C   2.876079   0.164169   -5.392326
C   0.504111   -0.063780   -5.605122
C   2.985622   0.365193   -6.758466
C   0.611410   0.119025   -6.976188
C   1.850860   0.339813   -7.556462
H   3.769928   0.157365   -4.775927
H   -0.476577   -0.223400   -5.173026
H   3.960474   0.528591   -7.203634
H   -0.279916   0.092945   -7.593006
H   1.933541   0.484406   -8.627410
C   3.442626   -0.080609   -2.619571
H   3.937167   -0.847870   -3.225224
H   3.729721   0.878266   -3.062104
C   3.898281   -0.153676   -1.173179
H   3.696536   -1.132970   -0.734549
H   3.392871   0.597015   -0.562018
H   4.974582   0.022153   -1.096164
