 26
   -268.608898
P   1.630298   -0.257098   -2.973429
C   2.887617   0.280782   -1.738501
H   3.535358   0.981837   -2.275731
H   2.439139   0.844915   -0.915929
C   3.708632   -0.887599   -1.212616
H   4.192194   -1.424707   -2.031424
H   3.083075   -1.605196   -0.676929
H   4.486367   -0.545546   -0.525671
C   0.252260   -0.860566   -1.931160
C   -1.031895   -0.740365   -2.463840
C   0.389230   -1.423701   -0.664692
C   -2.145609   -1.143247   -1.745457
C   -0.722223   -1.845212   0.050677
C   -1.992954   -1.701208   -0.484306
H   -1.154525   -0.329880   -3.461550
H   1.371334   -1.536162   -0.221118
H   -3.134405   -1.034130   -2.176255
H   -0.593555   -2.284532   1.033556
H   -2.860828   -2.029045   0.076044
C   0.933745   1.370857   -3.526127
H   1.744197   1.868882   -4.069464
H   0.180713   1.120202   -4.279661
C   0.342354   2.289468   -2.471888
H   1.096232   2.620122   -1.754636
H   -0.452951   1.789920   -1.914719
H   -0.083806   3.184778   -2.932410
