 26
   -277.755945
P   1.630298   -0.257098   -2.973429
C   1.544058   -2.032241   -2.486969
H   2.557958   -2.419408   -2.634525
H   1.319417   -2.155502   -1.423791
C   0.559094   -2.812861   -3.344997
H   0.809689   -2.725484   -4.404398
H   -0.460404   -2.441161   -3.219746
H   0.561687   -3.873453   -3.082500
C   3.100744   0.352741   -2.070450
C   3.294983   1.734514   -2.055384
C   4.025716   -0.449038   -1.406071
C   4.391092   2.296570   -1.421834
C   5.115104   0.111210   -0.754835
C   5.304653   1.484404   -0.765393
H   2.568137   2.376312   -2.544005
H   3.904794   -1.525681   -1.393666
H   4.525690   3.372232   -1.428653
H   5.821600   -0.530413   -0.240258
H   6.157012   1.921078   -0.257974
C   2.326082   -0.376403   -4.688815
H   2.338963   -1.445408   -4.927852
H   1.564286   0.064521   -5.339163
C   3.680353   0.255827   -4.955732
H   4.472128   -0.224912   -4.377723
H   3.677269   1.317508   -4.700159
H   3.948486   0.167143   -6.011910
