 26
   -282.920489
P   1.630298   -0.257098   -2.973429
C   0.425729   -0.391830   -4.361260
H   -0.560788   -0.299225   -3.894494
H   0.513627   0.442483   -5.062829
C   0.535315   -1.725521   -5.085823
H   0.403670   -2.558621   -4.392010
H   1.514215   -1.844589   -5.555722
H   -0.222585   -1.812865   -5.867952
C   3.236441   -0.070398   -3.830713
C   4.382158   -0.272597   -3.060194
C   3.396757   0.252692   -5.175976
C   5.646933   -0.130078   -3.606801
C   4.661675   0.378565   -5.731755
C   5.790300   0.193536   -4.948384
H   4.275270   -0.553074   -2.016705
H   2.529601   0.413127   -5.805449
H   6.523218   -0.285229   -2.987718
H   4.764642   0.627023   -6.782123
H   6.778098   0.293924   -5.382956
C   1.354477   1.489103   -2.411643
H   2.192030   2.065571   -2.819401
H   0.467257   1.828923   -2.954840
C   1.193841   1.743609   -0.923546
H   2.099597   1.488979   -0.369576
H   0.372101   1.155708   -0.509287
H   0.980211   2.798430   -0.731225
