 26
   -270.907218
P   1.630298   -0.257098   -2.973429
C   1.319370   0.489373   -1.317736
H   0.613860   -0.188655   -0.825602
H   2.219784   0.499829   -0.697132
C   0.715187   1.882077   -1.422956
H   -0.208013   1.863992   -2.006171
H   1.398611   2.576793   -1.916441
H   0.484017   2.287348   -0.434987
C   1.710766   1.198606   -4.079746
C   2.667749   2.165729   -3.769734
C   0.899844   1.408308   -5.192514
C   2.793364   3.317732   -4.528587
C   1.034665   2.552196   -5.965881
C   1.977146   3.512900   -5.633495
H   3.327447   2.004735   -2.922479
H   0.148477   0.676940   -5.465429
H   3.539288   4.058990   -4.265251
H   0.395964   2.694520   -6.830411
H   2.080501   4.407114   -6.237128
C   3.432796   -0.679370   -2.856878
H   3.767563   -0.829581   -3.889081
H   3.921540   0.238739   -2.516430
C   3.836585   -1.850696   -1.979404
H   3.427117   -2.792959   -2.348987
H   3.487634   -1.713873   -0.953731
H   4.924296   -1.957213   -1.950916
