 26
   -209.736936
P   1.630298   -0.257098   -2.973429
C   1.105138   -0.873256   -4.628654
H   1.979632   -1.396198   -5.030468
H   0.308176   -1.618502   -4.554736
C   0.704052   0.261342   -5.560078
H   1.516502   0.983112   -5.668411
H   -0.163997   0.803045   -5.177617
H   0.450505   -0.115207   -6.553905
C   3.454861   -0.383722   -3.039927
C   4.079257   0.180156   -4.153220
C   4.254128   -0.991467   -2.074712
C   5.453764   0.115728   -4.312369
C   5.632775   -1.042153   -2.221400
C   6.236437   -0.494362   -3.342658
H   3.473806   0.682964   -4.901266
H   3.804126   -1.436489   -1.195287
H   5.916913   0.554660   -5.188750
H   6.237311   -1.516608   -1.456525
H   7.313368   -0.536078   -3.457347
C   1.421943   1.574872   -3.176831
H   0.930729   1.709658   -4.146686
H   0.681031   1.864948   -2.425429
C   2.657341   2.450600   -3.067742
H   3.377001   2.235273   -3.860105
H   3.160973   2.304612   -2.109861
H   2.391558   3.508061   -3.147792
