 26
   -281.238802
P   1.630298   -0.257098   -2.973429
C   3.206914   0.208367   -3.805798
H   3.941827   -0.525901   -3.458787
H   3.146590   0.093644   -4.891710
C   3.657955   1.612721   -3.431520
H   3.760571   1.714189   -2.348959
H   2.937417   2.364178   -3.762221
H   4.621751   1.851956   -3.887186
C   0.740258   -1.202844   -4.262956
C   1.452360   -2.226592   -4.889135
C   -0.576434   -0.979890   -4.658475
C   0.879015   -2.985253   -5.896337
C   -1.160361   -1.749445   -5.654250
C   -0.433412   -2.750137   -6.280240
H   2.470524   -2.432754   -4.573222
H   -1.160852   -0.196019   -4.191638
H   1.453247   -3.771104   -6.373735
H   -2.188023   -1.562146   -5.944828
H   -0.889782   -3.349597   -7.059373
C   2.186662   -1.644836   -1.875459
H   1.273780   -2.179127   -1.590404
H   2.737742   -2.326426   -2.530779
C   3.017378   -1.298902   -0.652654
H   2.457401   -0.686097   0.056577
H   3.918817   -0.748928   -0.930917
H   3.328066   -2.205039   -0.125719
