 26
   -242.937363
P   1.630298   -0.257098   -2.973429
C   0.496137   -1.708847   -2.937125
H   -0.135140   -1.557349   -2.054968
H   -0.177543   -1.724401   -3.798471
C   1.253591   -3.023062   -2.815324
H   1.893532   -3.024158   -1.930317
H   1.896010   -3.194648   -3.681975
H   0.566143   -3.868712   -2.737486
C   2.933304   -0.714559   -1.772433
C   3.660273   -1.872539   -2.051446
C   3.248710   -0.001721   -0.618222
C   4.650936   -2.320232   -1.193015
C   4.252550   -0.436799   0.234870
C   4.952638   -1.599791   -0.046251
H   3.446839   -2.424778   -2.961632
H   2.707659   0.904034   -0.371631
H   5.198411   -3.226363   -1.426271
H   4.485087   0.134795   1.126392
H   5.735420   -1.939962   0.621739
C   2.539982   -0.537340   -4.565546
H   2.767642   -1.608620   -4.590183
H   1.798114   -0.372849   -5.353120
C   3.785912   0.288587   -4.831088
H   4.572816   0.078821   -4.103837
H   3.567086   1.357584   -4.788017
H   4.192051   0.070306   -5.822389
