 26
   -280.831237
P   1.630298   -0.257098   -2.973429
C   0.309952   -1.523558   -3.192469
H   0.825760   -2.412968   -3.570035
H   -0.143457   -1.812035   -2.239996
C   -0.751666   -1.076443   -4.186847
H   -0.303536   -0.830265   -5.151906
H   -1.277308   -0.185799   -3.835164
H   -1.495494   -1.860217   -4.348670
C   2.925763   -1.159685   -2.047906
C   4.027577   -0.413195   -1.628368
C   2.892579   -2.516490   -1.735175
C   5.075283   -1.006250   -0.943281
C   3.931409   -3.110610   -1.033316
C   5.028232   -2.359445   -0.640337
H   4.056320   0.651634   -1.838783
H   2.051110   -3.126393   -2.041577
H   5.924601   -0.408276   -0.632966
H   3.884364   -4.167659   -0.796588
H   5.840213   -2.824809   -0.093712
C   2.396964   -0.225244   -4.662247
H   2.472057   -1.273465   -4.971552
H   1.639971   0.223274   -5.313010
C   3.727539   0.486593   -4.829190
H   4.519223   0.004785   -4.251946
H   3.661948   1.526835   -4.503480
H   4.040386   0.483526   -5.876753
