 26
   -278.703942
P   1.630298   -0.257098   -2.973429
C   3.104133   -0.381136   -4.072354
H   3.753149   -1.125346   -3.598443
H   2.848100   -0.779452   -5.058151
C   3.838296   0.946063   -4.195972
H   4.132686   1.322224   -3.213832
H   3.208800   1.707954   -4.661251
H   4.740432   0.842618   -4.803604
C   1.159172   -2.005421   -2.707173
C   2.158259   -2.855236   -2.230843
C   -0.104849   -2.541754   -2.940454
C   1.912281   -4.202049   -2.020276
C   -0.360295   -3.886379   -2.713553
C   0.648088   -4.721788   -2.258628
H   3.141610   -2.447761   -2.016492
H   -0.905877   -1.910858   -3.306867
H   2.705398   -4.845227   -1.656273
H   -1.352306   -4.283300   -2.897879
H   0.448135   -5.772503   -2.083439
C   2.418654   0.121961   -1.337670
H   2.241522   -0.760795   -0.713617
H   3.495204   0.136124   -1.533986
C   1.995177   1.389642   -0.617489
H   0.940317   1.362344   -0.337066
H   2.151987   2.270278   -1.243896
H   2.572814   1.525556   0.300735
