 26
   -219.259613
P   1.630298   -0.257098   -2.973429
C   0.058930   -0.259840   -3.935722
H   -0.737238   -0.293248   -3.184281
H   -0.082439   0.670761   -4.492498
C   -0.044753   -1.466197   -4.857507
H   0.052593   -2.397028   -4.294620
H   0.743498   -1.458920   -5.613704
H   -1.005405   -1.483621   -5.377709
C   1.101266   -0.800282   -1.307727
C   2.022649   -1.547981   -0.573391
C   -0.134607   -0.525236   -0.727390
C   1.711378   -2.029273   0.687646
C   -0.443574   -0.990009   0.542759
C   0.475357   -1.747994   1.251790
H   3.001409   -1.747369   -0.999108
H   -0.873259   0.055626   -1.266768
H   2.440172   -2.613954   1.237390
H   -1.409986   -0.761570   0.978041
H   0.232427   -2.112270   2.243235
C   2.440285   -1.810863   -3.582225
H   2.287960   -2.552312   -2.790311
H   1.825661   -2.144431   -4.424050
C   3.901669   -1.742603   -3.988068
H   4.545038   -1.491951   -3.142276
H   4.060907   -0.990613   -4.763728
H   4.240516   -2.704921   -4.381003
