 26
   -275.865977
P   1.630298   -0.257098   -2.973429
C   -0.122904   -0.307388   -3.538200
H   -0.160032   0.346424   -4.416160
H   -0.413853   -1.303331   -3.883816
C   -1.081982   0.199636   -2.471040
H   -0.817287   1.211740   -2.157439
H   -1.059019   -0.433525   -1.581205
H   -2.109910   0.217394   -2.840928
C   2.341116   -1.788392   -3.680086
C   3.567065   -2.205093   -3.159837
C   1.756399   -2.557566   -4.683231
C   4.202594   -3.336854   -3.643540
C   2.380921   -3.701882   -5.157853
C   3.607985   -4.091989   -4.644208
H   4.023241   -1.633077   -2.357552
H   0.803150   -2.266429   -5.108072
H   5.157982   -3.638174   -3.229232
H   1.907009   -4.288801   -5.936660
H   4.096054   -4.985051   -5.016907
C   2.355007   1.002330   -4.126484
H   2.910255   0.429461   -4.877216
H   1.499387   1.434058   -4.654900
C   3.219455   2.100220   -3.532871
H   4.123606   1.698123   -3.071414
H   2.675738   2.661242   -2.769902
H   3.534689   2.806338   -4.305721
