 26
   -167.132954
P   1.630298   -0.257098   -2.973429
C   0.081985   -1.214143   -3.259792
H   -0.165145   -1.656626   -2.288814
H   -0.757714   -0.565608   -3.524956
C   0.271404   -2.310462   -4.298031
H   1.081689   -2.984103   -4.010960
H   0.524886   -1.894138   -5.275603
H   -0.638062   -2.904648   -4.414565
C   2.934494   -1.538601   -3.052867
C   2.980192   -2.311163   -4.214035
C   3.871558   -1.794748   -2.054808
C   3.912530   -3.324657   -4.363447
C   4.818629   -2.796894   -2.208144
C   4.838711   -3.568613   -3.359555
H   2.275361   -2.105994   -5.014084
H   3.868389   -1.212243   -1.141236
H   3.925299   -3.916904   -5.271352
H   5.541746   -2.977693   -1.420730
H   5.577739   -4.352549   -3.477695
C   1.872106   0.558289   -4.621934
H   0.966725   0.334877   -5.196781
H   1.837577   1.633088   -4.418671
C   3.118659   0.209362   -5.415260
H   3.134145   -0.844149   -5.701596
H   4.023187   0.412355   -4.838097
H   3.170274   0.797670   -6.335315
