 26
   -196.906249
P   1.630298   -0.257098   -2.973429
C   1.378196   -0.137601   -4.794796
H   0.561920   0.581086   -4.924585
H   2.247831   0.289750   -5.301856
C   0.994828   -1.476599   -5.407861
H   0.100234   -1.882526   -4.930694
H   1.791845   -2.213576   -5.285989
H   0.793257   -1.377520   -6.477122
C   0.038234   0.334280   -2.291453
C   -0.349042   -0.196903   -1.060554
C   -0.802104   1.262663   -2.901172
C   -1.548607   0.165168   -0.470050
C   -1.995811   1.641688   -2.304383
C   -2.375741   1.090340   -1.090559
H   0.307682   -0.900336   -0.557704
H   -0.531834   1.698782   -3.855472
H   -1.832583   -0.265408   0.483455
H   -2.633971   2.368868   -2.793841
H   -3.309361   1.385608   -0.625968
C   1.448571   -2.081742   -2.693166
H   1.268593   -2.198341   -1.618881
H   0.509239   -2.355577   -3.183440
C   2.572481   -2.990945   -3.157049
H   3.502062   -2.791051   -2.620360
H   2.768169   -2.863421   -4.223791
H   2.317614   -4.040450   -2.987186
