 26
   -265.572183
P   1.630298   -0.257098   -2.973429
C   0.420390   1.028960   -2.446749
H   0.059413   1.480874   -3.376874
H   -0.454627   0.592531   -1.956975
C   1.062475   2.091709   -1.566963
H   1.909810   2.558358   -2.073940
H   1.436434   1.664108   -0.633937
H   0.346862   2.876523   -1.310582
C   1.935047   -1.199471   -1.434420
C   0.808214   -1.637288   -0.737416
C   3.190409   -1.508171   -0.916163
C   0.929100   -2.336362   0.452302
C   3.316022   -2.223881   0.265672
C   2.186728   -2.635080   0.956549
H   -0.177806   -1.430072   -1.142121
H   4.087455   -1.187705   -1.432444
H   0.039787   -2.660827   0.980559
H   4.302610   -2.457155   0.650165
H   2.285791   -3.192529   1.880730
C   0.533484   -1.450258   -3.875796
H   -0.445935   -0.963127   -3.935114
H   0.916409   -1.473781   -4.900742
C   0.406310   -2.859611   -3.325740
H   -0.051528   -2.867152   -2.334558
H   1.382916   -3.341773   -3.246663
H   -0.218672   -3.475615   -3.977821
