 26
   -249.616756
P   1.630298   -0.257098   -2.973429
C   2.065313   -0.539705   -4.741509
H   3.150668   -0.402584   -4.795050
H   1.869709   -1.569855   -5.052205
C   1.369826   0.448620   -5.666305
H   1.600775   1.477648   -5.382533
H   0.284070   0.335632   -5.626386
H   1.681883   0.304932   -6.703484
C   2.839252   -1.296122   -2.074348
C   3.997074   -0.659542   -1.625502
C   2.690173   -2.655069   -1.808148
C   4.986731   -1.361372   -0.957099
C   3.670784   -3.357775   -1.123052
C   4.824203   -2.715226   -0.700608
H   4.116532   0.405562   -1.799410
H   1.802493   -3.181339   -2.138297
H   5.881204   -0.847773   -0.623415
H   3.533570   -4.414476   -0.922649
H   5.590609   -3.265395   -0.167118
C   2.358423   1.422987   -2.676706
H   3.374663   1.379709   -3.083475
H   1.802866   2.097359   -3.335703
C   2.364838   1.957739   -1.255788
H   2.982650   1.345340   -0.595948
H   1.355547   1.984053   -0.839693
H   2.765269   2.974610   -1.225789
