 26
   -222.297591
P   1.630298   -0.257098   -2.973429
C   0.414798   1.055059   -3.416166
H   -0.033541   1.362963   -2.465456
H   0.902138   1.943100   -3.828339
C   -0.664267   0.540476   -4.357737
H   -1.180684   -0.319845   -3.926549
H   -0.240808   0.221120   -5.312683
H   -1.408207   1.313384   -4.564947
C   1.109080   -0.759681   -1.292587
C   2.026602   -1.505766   -0.551803
C   -0.117396   -0.455658   -0.706798
C   1.720250   -1.957570   0.721291
C   -0.421128   -0.890800   0.575057
C   0.493564   -1.647633   1.290769
H   2.998492   -1.727439   -0.982213
H   -0.852757   0.124890   -1.250987
H   2.445798   -2.541590   1.276008
H   -1.380175   -0.640073   1.014342
H   0.254699   -1.988756   2.291396
C   0.996135   -1.696566   -3.956621
H   0.472197   -2.336243   -3.238027
H   0.219547   -1.281012   -4.606180
C   1.993960   -2.499806   -4.771582
H   2.731774   -2.993011   -4.135585
H   2.532406   -1.862031   -5.475721
H   1.487016   -3.279121   -5.346863
