 26
   -282.420764
P   1.630298   -0.257098   -2.973429
C   1.989926   0.848296   -1.543749
H   1.265091   0.564994   -0.773024
H   2.979959   0.660153   -1.118968
C   1.821761   2.317926   -1.901022
H   0.818062   2.514063   -2.284272
H   2.530902   2.624008   -2.673459
H   1.982429   2.956608   -1.029220
C   3.063350   0.010920   -4.079781
C   4.328051   -0.099419   -3.500465
C   2.985480   0.311273   -5.437554
C   5.477283   0.110219   -4.244820
C   4.134502   0.504094   -6.190761
C   5.383270   0.410104   -5.596248
H   4.407647   -0.361079   -2.449675
H   2.020404   0.401057   -5.921807
H   6.449345   0.026039   -3.772358
H   4.052084   0.733395   -7.247281
H   6.280334   0.562754   -6.185016
C   2.063308   -1.919809   -2.274292
H   2.949313   -2.250314   -2.827319
H   2.406305   -1.722015   -1.254033
C   0.991629   -2.995222   -2.273341
H   0.692384   -3.268911   -3.287077
H   0.099055   -2.662116   -1.739631
H   1.353899   -3.903469   -1.784343
