 26
   -280.145486
P   1.630298   -0.257098   -2.973429
C   0.737355   -1.375438   -4.134111
H   1.041533   -1.051490   -5.135209
H   1.063562   -2.414528   -4.034687
C   -0.773166   -1.263244   -3.987578
H   -1.103664   -0.232174   -4.130507
H   -1.101504   -1.575690   -2.993698
H   -1.288044   -1.888850   -4.720574
C   3.070933   -1.258769   -2.453128
C   3.763888   -0.816424   -1.325567
C   3.519028   -2.413632   -3.089779
C   4.883870   -1.488378   -0.864195
C   4.629563   -3.099857   -2.620141
C   5.318806   -2.636748   -1.510107
H   3.411223   0.065974   -0.800246
H   3.003368   -2.788514   -3.965847
H   5.410854   -1.122805   0.009793
H   4.959823   -3.999062   -3.128043
H   6.187398   -3.172417   -1.145030
C   2.455287   0.915837   -4.150082
H   2.996011   0.285135   -4.864161
H   1.639643   1.375018   -4.717161
C   3.365531   1.984726   -3.572205
H   4.233028   1.549891   -3.071725
H   2.835322   2.603415   -2.845159
H   3.740421   2.642769   -4.360691
