 26
   -277.046729
P   1.630298   -0.257098   -2.973429
C   2.513206   -1.846567   -3.272217
H   3.368138   -1.584963   -3.904924
H   2.928773   -2.264165   -2.350849
C   1.632867   -2.864767   -3.982151
H   1.253289   -2.463122   -4.924152
H   0.768462   -3.138005   -3.372748
H   2.187558   -3.779832   -4.202923
C   2.225313   0.246661   -1.317630
C   1.494734   1.242728   -0.668512
C   3.336541   -0.284105   -0.667029
C   1.876055   1.713712   0.577086
C   3.711273   0.172048   0.588461
C   2.986389   1.175834   1.211886
H   0.609090   1.647423   -1.148948
H   3.925285   -1.061496   -1.139236
H   1.297481   2.493058   1.059875
H   4.577491   -0.257116   1.079470
H   3.280964   1.532904   2.191886
C   2.600024   0.911354   -4.038909
H   3.159818   0.278601   -4.736282
H   1.853717   1.434015   -4.645168
C   3.517816   1.908052   -3.353882
H   4.322000   1.409293   -2.809234
H   2.966907   2.527783   -2.643299
H   3.983891   2.572955   -4.085968
