 26
   -283.085974
P   1.630298   -0.257098   -2.973429
C   3.378449   -0.380523   -3.542593
H   3.470502   0.356594   -4.347483
H   4.085110   -0.076905   -2.765130
C   3.711762   -1.769165   -4.068246
H   3.033083   -2.054425   -4.874957
H   3.621403   -2.524417   -3.284245
H   4.733092   -1.810085   -4.454222
C   1.623491   -1.238284   -1.428529
C   0.373848   -1.609310   -0.930550
C   2.757178   -1.636941   -0.724507
C   0.257484   -2.330808   0.246161
C   2.645676   -2.375246   0.444778
C   1.396286   -2.719470   0.936955
H   -0.519225   -1.331388   -1.482038
H   3.744009   -1.370099   -1.083525
H   -0.723908   -2.602317   0.618134
H   3.540892   -2.678933   0.975784
H   1.310057   -3.294648   1.851509
C   1.589654   1.459248   -2.271004
H   2.468670   1.967024   -2.682793
H   0.723516   1.939735   -2.736446
C   1.532101   1.611967   -0.761575
H   2.427186   1.212885   -0.280253
H   0.667736   1.090554   -0.345049
H   1.453826   2.665728   -0.480983
