 26
   -265.781742
P   1.630298   -0.257098   -2.973429
C   2.143389   -1.173262   -4.487560
H   2.681539   -2.054009   -4.121033
H   1.284220   -1.549679   -5.049826
C   3.053870   -0.340705   -5.378407
H   3.934227   -0.001419   -4.828298
H   2.541059   0.548246   -5.752597
H   3.395012   -0.916810   -6.241826
C   2.568923   -1.091257   -1.642021
C   3.939156   -1.252292   -1.851260
C   2.024325   -1.568953   -0.452466
C   4.735622   -1.893549   -0.916819
C   2.821779   -2.195646   0.494147
C   4.178050   -2.365232   0.262907
H   4.385183   -0.860427   -2.760359
H   0.964893   -1.458051   -0.254379
H   5.796749   -2.013597   -1.103387
H   2.378775   -2.557012   1.415434
H   4.799943   -2.856615   1.002140
C   2.613548   1.307410   -3.136006
H   3.650959   0.989153   -3.286231
H   2.297160   1.748133   -4.086459
C   2.516217   2.331356   -2.019282
H   2.904707   1.940169   -1.076859
H   1.480988   2.636673   -1.853219
H   3.093815   3.227085   -2.262844
