 26
   -279.503346
P   1.630298   -0.257098   -2.973429
C   2.961415   -1.125652   -2.041252
H   3.880844   -0.580119   -2.279386
H   2.825669   -1.042179   -0.959305
C   3.096845   -2.581910   -2.461615
H   3.276298   -2.663000   -3.535851
H   2.188761   -3.146972   -2.239544
H   3.926559   -3.066887   -1.941866
C   0.872433   0.826258   -1.707938
C   -0.374030   1.371268   -2.018655
C   1.439455   1.141024   -0.475368
C   -1.021417   2.224577   -1.140304
C   0.786024   1.980804   0.414886
C   -0.442986   2.529751   0.083384
H   -0.843539   1.113604   -2.963183
H   2.404345   0.733079   -0.198779
H   -1.986174   2.641901   -1.405437
H   1.242971   2.210257   1.371001
H   -0.951877   3.187209   0.778692
C   2.606389   0.994543   -3.933397
H   3.199302   0.417886   -4.651726
H   1.867476   1.540450   -4.528119
C   3.482946   1.962906   -3.159491
H   4.281005   1.445842   -2.622964
H   2.898796   2.525899   -2.428531
H   3.956376   2.681506   -3.833843
