 26
   -282.071282
P   1.630298   -0.257098   -2.973429
C   1.972769   1.547640   -2.829039
H   1.281355   1.909969   -2.060711
H   2.980763   1.744862   -2.453466
C   1.726851   2.282687   -4.138605
H   0.705861   2.121157   -4.491098
H   2.401479   1.934375   -4.923959
H   1.878804   3.358327   -4.021664
C   3.112203   -1.025083   -2.222667
C   3.492128   -0.550825   -0.966487
C   3.876517   -2.033959   -2.803887
C   4.613884   -1.047179   -0.323026
C   4.990298   -2.546583   -2.154687
C   5.365983   -2.051321   -0.915624
H   2.891086   0.215400   -0.486271
H   3.609092   -2.429070   -3.776669
H   4.894355   -0.659065   0.649556
H   5.569654   -3.334510   -2.622794
H   6.237329   -2.451066   -0.410021
C   0.402092   -0.511643   -1.606822
H   0.782310   0.066439   -0.757510
H   -0.504936   0.004852   -1.935811
C   0.079413   -1.936246   -1.192822
H   0.953470   -2.446073   -0.782683
H   -0.281513   -2.521404   -2.041242
H   -0.696720   -1.950145   -0.422954
