 26
   -280.040057
P   1.630298   -0.257098   -2.973429
C   2.578389   0.587995   -4.308403
H   3.418822   1.072811   -3.800181
H   3.015119   -0.123718   -5.014615
C   1.738933   1.629050   -5.034523
H   1.338748   2.365364   -4.334197
H   0.889430   1.170277   -5.545501
H   2.330903   2.160474   -5.783473
C   2.925763   -1.159685   -2.047906
C   4.027577   -0.413195   -1.628368
C   2.892579   -2.516490   -1.735175
C   5.075283   -1.006250   -0.943281
C   3.931409   -3.110610   -1.033316
C   5.028232   -2.359445   -0.640337
H   4.056320   0.651634   -1.838783
H   2.051110   -3.126393   -2.041577
H   5.924601   -0.408276   -0.632966
H   3.884364   -4.167659   -0.796588
H   5.840213   -2.824809   -0.093712
C   1.308817   1.145287   -1.802590
H   2.247819   1.707145   -1.750942
H   0.600421   1.797325   -2.322898
C   0.798525   0.811998   -0.412076
H   1.526306   0.230281   0.157182
H   -0.127325   0.234897   -0.459513
H   0.595091   1.724039   0.155435
