 26
   -283.59762
P   1.630298   -0.257098   -2.973429
C   0.796135   0.762267   -1.684910
H   -0.225857   0.907082   -2.051275
H   0.709336   0.229796   -0.733625
C   1.476107   2.110146   -1.493617
H   1.523357   2.660670   -2.435665
H   2.500652   1.992192   -1.133586
H   0.936847   2.724557   -0.768728
C   3.194913   -0.754497   -2.164689
C   3.088813   -1.309116   -0.888605
C   4.464737   -0.623166   -2.721576
C   4.214626   -1.694730   -0.179666
C   5.593533   -1.024940   -2.022185
C   5.473012   -1.556273   -0.747484
H   2.104447   -1.445117   -0.451011
H   4.584921   -0.200244   -3.711843
H   4.109008   -2.117018   0.813173
H   6.572718   -0.917597   -2.475265
H   6.355540   -1.868138   -0.201078
C   0.682664   -1.847592   -2.858471
H   0.552816   -2.036430   -1.787231
H   -0.315511   -1.615717   -3.242633
C   1.249389   -3.068865   -3.560129
H   2.209722   -3.369456   -3.136433
H   1.398686   -2.878152   -4.624945
H   0.570639   -3.920658   -3.465157
