 26
   -256.63495
P   1.630298   -0.257098   -2.973429
C   2.004743   1.346083   -3.800963
H   3.039864   1.254972   -4.147210
H   1.393618   1.498507   -4.694997
C   1.877008   2.525116   -2.847390
H   2.520941   2.393239   -1.975196
H   0.853047   2.633750   -2.482798
H   2.157319   3.460663   -3.337231
C   0.724173   -1.190360   -4.260848
C   1.424755   -2.215383   -4.897844
C   -0.594081   -0.956886   -4.644929
C   0.838711   -2.965075   -5.904453
C   -1.190687   -1.717464   -5.640085
C   -0.475109   -2.719527   -6.276888
H   2.443986   -2.429731   -4.590950
H   -1.169773   -0.171722   -4.169504
H   1.404123   -3.752098   -6.390369
H   -2.219342   -1.522048   -5.921668
H   -0.941383   -3.311967   -7.055527
C   3.276994   -1.107557   -3.050955
H   3.070766   -2.166731   -2.862018
H   3.582679   -1.046702   -4.100027
C   4.385843   -0.600679   -2.146224
H   4.136867   -0.728326   -1.090842
H   4.581081   0.459946   -2.317836
H   5.315739   -1.145585   -2.329644
