 26
   -265.894902
P   1.630298   -0.257098   -2.973429
C   0.575206   0.869553   -3.979735
H   -0.180569   1.251136   -3.284852
H   1.131126   1.740450   -4.338196
C   -0.099170   0.142110   -5.133762
H   -0.690119   -0.701741   -4.771192
H   0.635158   -0.253643   -5.839005
H   -0.764986   0.809861   -5.685636
C   3.185652   -0.342221   -3.934217
C   4.357446   -0.554829   -3.206929
C   3.283998   -0.213492   -5.317539
C   5.590432   -0.609659   -3.835806
C   4.515006   -0.285948   -5.953246
C   5.672230   -0.478267   -5.214635
H   4.295814   -0.685868   -2.130829
H   2.394672   -0.051274   -5.914798
H   6.488610   -0.768911   -3.250037
H   4.569384   -0.187006   -7.031606
H   6.633698   -0.532858   -5.711902
C   2.159070   0.864435   -1.593769
H   3.188451   1.156031   -1.829189
H   1.558240   1.771174   -1.714297
C   2.053954   0.344990   -0.171046
H   2.709826   -0.511728   -0.003772
H   1.032979   0.034891   0.061209
H   2.339588   1.118779   0.546544
