 26
   -277.11936
P   1.630298   -0.257098   -2.973429
C   0.449499   -0.004461   -4.365227
H   0.666417   -0.810053   -5.074897
H   -0.589153   -0.142064   -4.051745
C   0.639945   1.347025   -5.038242
H   1.666798   1.466393   -5.390503
H   0.434849   2.168449   -4.348007
H   -0.027646   1.458000   -5.896015
C   1.448301   -2.037108   -2.588815
C   2.573473   -2.682478   -2.074291
C   0.286157   -2.783484   -2.768163
C   2.548720   -4.034572   -1.774329
C   0.251782   -4.133873   -2.451899
C   1.383708   -4.764967   -1.959796
H   3.479295   -2.109297   -1.901344
H   -0.607759   -2.314724   -3.162005
H   3.436797   -4.516856   -1.381986
H   -0.664147   -4.696082   -2.595430
H   1.356500   -5.820379   -1.714766
C   3.256046   -0.279969   -3.866355
H   3.543631   -1.335240   -3.927801
H   3.025066   0.025426   -4.891577
C   4.390143   0.559970   -3.306591
H   4.694329   0.219388   -2.314831
H   4.100601   1.609765   -3.225416
H   5.269614   0.504971   -3.953722
