 26
   -277.16386
P   1.630298   -0.257098   -2.973429
C   0.847464   1.380989   -2.658698
H   1.578722   2.119317   -3.004815
H   -0.050364   1.529579   -3.265187
C   0.548464   1.597431   -1.182390
H   1.454159   1.492262   -0.581210
H   -0.175302   0.868303   -0.811226
H   0.137947   2.594346   -1.005179
C   0.652818   -0.926316   -4.368480
C   1.319247   -1.788042   -5.240576
C   -0.687764   -0.643813   -4.619187
C   0.677299   -2.328642   -6.342576
C   -1.339492   -1.197584   -5.711588
C   -0.658218   -2.036597   -6.579704
H   2.356546   -2.041604   -5.043911
H   -1.237985   0.018093   -3.961105
H   1.216630   -2.990428   -7.010687
H   -2.384541   -0.967859   -5.886816
H   -1.167637   -2.467270   -7.433921
C   3.178818   0.237813   -3.866764
H   3.633734   -0.698282   -4.208605
H   2.837293   0.750172   -4.771501
C   4.189635   1.092916   -3.123759
H   4.606992   0.568655   -2.261739
H   3.734924   2.018400   -2.764300
H   5.024283   1.362239   -3.776523
