 26
   -182.851761
P   1.630298   -0.257098   -2.973429
C   1.111575   -1.402927   -4.319986
H   0.087069   -1.106683   -4.569563
H   1.702801   -1.261467   -5.229077
C   1.138574   -2.857788   -3.874584
H   0.512753   -3.007505   -2.992147
H   2.150494   -3.176151   -3.614029
H   0.774282   -3.518891   -4.664522
C   0.038234   0.334280   -2.291453
C   -0.349042   -0.196903   -1.060554
C   -0.802104   1.262663   -2.901172
C   -1.548607   0.165168   -0.470050
C   -1.995811   1.641688   -2.304383
C   -2.375741   1.090340   -1.090559
H   0.307682   -0.900336   -0.557704
H   -0.531834   1.698782   -3.855472
H   -1.832583   -0.265408   0.483455
H   -2.633971   2.368868   -2.793841
H   -3.309361   1.385608   -0.625968
C   2.132330   -1.450102   -1.644670
H   2.149191   -0.867806   -0.716918
H   1.289939   -2.141769   -1.546312
C   3.429251   -2.218020   -1.827176
H   4.294453   -1.552263   -1.844755
H   3.424190   -2.784507   -2.760751
H   3.579610   -2.925829   -1.007621
