 26
   -279.148888
P   1.630298   -0.257098   -2.973429
C   0.034935   0.543709   -3.430308
H   -0.397070   -0.099293   -4.204636
H   -0.676038   0.544667   -2.599333
C   0.236742   1.950238   -3.974995
H   0.912740   1.943364   -4.832750
H   0.672807   2.610530   -3.221943
H   -0.711432   2.389314   -4.294282
C   1.159172   -2.005421   -2.707173
C   2.158259   -2.855236   -2.230843
C   -0.104849   -2.541754   -2.940454
C   1.912281   -4.202049   -2.020276
C   -0.360295   -3.886379   -2.713553
C   0.648088   -4.721788   -2.258628
H   3.141610   -2.447761   -2.016492
H   -0.905877   -1.910858   -3.306867
H   2.705398   -4.845227   -1.656273
H   -1.352306   -4.283300   -2.897879
H   0.448135   -5.772503   -2.083439
C   2.464040   -0.390912   -4.625054
H   2.513450   -1.463120   -4.844153
H   1.750163   0.026447   -5.341915
C   3.825028   0.260667   -4.792886
H   4.575263   -0.197099   -4.145035
H   3.784166   1.325982   -4.556396
H   4.178893   0.160251   -5.822434
