 26
   -273.256384
P   1.630298   -0.257098   -2.973429
C   -0.091459   0.140886   -3.495325
H   -0.070580   1.201734   -3.767038
H   -0.381873   -0.402428   -4.398914
C   -1.095888   -0.089696   -2.375643
H   -0.829713   0.487507   -1.487527
H   -1.131159   -1.141282   -2.082130
H   -2.102488   0.204684   -2.682018
C   1.791586   0.609167   -1.369354
C   2.640637   0.026000   -0.427929
C   1.139742   1.790791   -1.024844
C   2.812632   0.588055   0.826367
C   1.323363   2.366801   0.223855
C   2.155198   1.764824   1.155184
H   3.178780   -0.879859   -0.690192
H   0.475881   2.273616   -1.732023
H   3.471968   0.114036   1.544554
H   0.809459   3.289023   0.470868
H   2.296591   2.214504   2.131130
C   1.443758   -2.005824   -2.383466
H   1.428044   -1.947665   -1.289644
H   0.433018   -2.302799   -2.679964
C   2.457506   -3.031578   -2.857970
H   3.463721   -2.799994   -2.502987
H   2.490197   -3.078609   -3.948481
H   2.203048   -4.028390   -2.487984
