 26
   -266.371537
P   1.630298   -0.257098   -2.973429
C   0.087881   0.410373   -2.218018
H   0.371153   0.706558   -1.202295
H   -0.253879   1.320066   -2.719677
C   -1.020347   -0.631203   -2.166219
H   -0.693226   -1.522681   -1.626754
H   -1.317028   -0.947727   -3.168726
H   -1.907845   -0.238149   -1.664598
C   1.308580   -0.121080   -4.769949
C   2.421067   0.070454   -5.590277
C   0.053697   -0.194808   -5.369661
C   2.283794   0.211563   -6.961405
C   -0.086298   -0.072145   -6.744473
C   1.026707   0.137159   -7.543919
H   3.409645   0.101752   -5.142287
H   -0.832010   -0.346566   -4.764328
H   3.161376   0.366442   -7.578715
H   -1.071824   -0.136280   -7.191945
H   0.916207   0.234760   -8.617669
C   2.800767   1.163281   -2.742294
H   3.708002   0.889924   -3.292090
H   2.356137   1.995194   -3.297203
C   3.133653   1.590829   -1.324055
H   3.653986   0.802994   -0.775710
H   2.229918   1.845478   -0.766462
H   3.783707   2.469860   -1.326350
