 26
   -274.944213
P   1.630298   -0.257098   -2.973429
C   0.852689   -1.220159   -4.338365
H   1.159345   -0.711664   -5.258723
H   1.250843   -2.236779   -4.401308
C   -0.665389   -1.236146   -4.233885
H   -1.066067   -0.220333   -4.215308
H   -0.996776   -1.733733   -3.319655
H   -1.113448   -1.761747   -5.080498
C   0.669910   1.300784   -2.961289
C   0.514366   1.928229   -1.724613
C   0.092505   1.897827   -4.079307
C   -0.216663   3.098446   -1.602405
C   -0.625129   3.079557   -3.964116
C   -0.787062   3.680412   -2.725386
H   0.982018   1.491654   -0.847307
H   0.195944   1.440806   -5.056224
H   -0.330267   3.565003   -0.630484
H   -1.063536   3.530113   -4.847521
H   -1.349447   4.602591   -2.636035
C   0.917829   -1.092206   -1.478143
H   1.230974   -0.483029   -0.623205
H   -0.164734   -0.954566   -1.560669
C   1.249562   -2.556367   -1.251876
H   2.317709   -2.707778   -1.083796
H   0.956645   -3.164395   -2.110361
H   0.723926   -2.942094   -0.374269
