 26
   -253.909883
P   1.630298   -0.257098   -2.973429
C   0.141109   0.080072   -1.942001
H   -0.349483   -0.891663   -1.820697
H   0.406855   0.418148   -0.936472
C   -0.808369   1.062090   -2.612722
H   -1.108410   0.702867   -3.599483
H   -0.339471   2.039016   -2.750474
H   -1.711887   1.207341   -2.015793
C   1.710766   1.198606   -4.079746
C   2.667749   2.165729   -3.769734
C   0.899844   1.408308   -5.192514
C   2.793364   3.317732   -4.528587
C   1.034665   2.552196   -5.965881
C   1.977146   3.512900   -5.633495
H   3.327447   2.004735   -2.922479
H   0.148477   0.676940   -5.465429
H   3.539288   4.058990   -4.265251
H   0.395964   2.694520   -6.830411
H   2.080501   4.407114   -6.237128
C   3.000048   0.153853   -1.791989
H   3.893715   0.286332   -2.411574
H   2.756753   1.148071   -1.404642
C   3.269834   -0.808179   -0.648870
H   3.595528   -1.785384   -1.010958
H   2.375691   -0.958108   -0.040163
H   4.057931   -0.423593   0.004023
