 26
   -284.369163
P   1.630298   -0.257098   -2.973429
C   -0.000871   -1.089939   -2.771255
H   -0.159111   -1.151392   -1.689198
H   -0.821558   -0.485951   -3.168339
C   -0.009371   -2.485324   -3.378349
H   0.783131   -3.102398   -2.949487
H   0.152648   -2.451229   -4.458078
H   -0.963458   -2.987086   -3.200250
C   1.684217   0.127821   -4.761841
C   2.930659   0.466788   -5.289795
C   0.589030   0.106415   -5.622032
C   3.075326   0.800480   -6.626383
C   0.732883   0.422318   -6.965261
C   1.974428   0.775862   -7.470506
H   3.800104   0.460688   -4.639419
H   -0.393373   -0.155832   -5.247805
H   4.052123   1.067317   -7.013522
H   -0.131783   0.395948   -7.618915
H   2.085542   1.024334   -8.519597
C   1.273236   1.428652   -2.286660
H   2.085714   2.070618   -2.644201
H   0.374043   1.767675   -2.810313
C   1.094474   1.564916   -0.785165
H   2.008283   1.310796   -0.244342
H   0.298280   0.911786   -0.421858
H   0.832488   2.591995   -0.517311
