 26
   -255.74549
P   1.630298   -0.257098   -2.973429
C   2.256618   1.078985   -1.869881
H   2.885072   1.707928   -2.509520
H   1.449974   1.720788   -1.504616
C   3.078435   0.527352   -0.714004
H   3.910360   -0.077916   -1.080492
H   2.474334   -0.109172   -0.063522
H   3.489774   1.333860   -0.102357
C   -0.141103   0.158978   -3.169657
C   -0.741576   -0.219659   -4.371039
C   -0.922514   0.814956   -2.221548
C   -2.070978   0.070997   -4.629799
C   -2.259173   1.091845   -2.469398
C   -2.836098   0.726361   -3.675748
H   -0.154537   -0.757175   -5.109566
H   -0.490804   1.120448   -1.275908
H   -2.514986   -0.226644   -5.572920
H   -2.851081   1.600100   -1.716452
H   -3.879902   0.944751   -3.869281
C   2.279418   0.289930   -4.622762
H   2.815507   -0.574362   -5.029804
H   1.393594   0.414277   -5.253279
C   3.143642   1.537203   -4.672139
H   4.074543   1.406499   -4.116753
H   2.619832   2.397003   -4.249220
H   3.411384   1.783074   -5.703223
