 26
   -284.846814
P   1.630298   -0.257098   -2.973429
C   3.139439   -0.962176   -2.185667
H   3.964307   -0.328125   -2.528063
H   3.113579   -0.871537   -1.096116
C   3.382845   -2.404394   -2.605781
H   3.452486   -2.487923   -3.692490
H   2.569530   -3.056997   -2.280428
H   4.310878   -2.789036   -2.176163
C   0.266285   -1.115891   -2.106578
C   -0.994473   -1.042199   -2.700133
C   0.392583   -1.828011   -0.916302
C   -2.098795   -1.636027   -2.111415
C   -0.707516   -2.439619   -0.332802
C   -1.957142   -2.340916   -0.924743
H   -1.105363   -0.515243   -3.642991
H   1.356947   -1.909455   -0.429165
H   -3.070139   -1.560189   -2.586759
H   -0.587045   -2.992514   0.592076
H   -2.816367   -2.817440   -0.467215
C   1.534149   1.409336   -2.164325
H   2.400223   1.967751   -2.536031
H   0.657027   1.892758   -2.605526
C   1.462596   1.464308   -0.648783
H   2.366128   1.061935   -0.186355
H   0.611542   0.892419   -0.273092
H   1.351213   2.495414   -0.302823
