 26
   -279.133228
P   1.630298   -0.257098   -2.973429
C   3.387290   0.113960   -2.560502
H   3.714422   0.832703   -3.319485
H   3.483615   0.620044   -1.595824
C   4.261556   -1.130546   -2.611443
H   4.199214   -1.611553   -3.589967
H   3.951064   -1.866543   -1.866372
H   5.308936   -0.884796   -2.420739
C   0.701615   0.572026   -1.631942
C   -0.573726   1.039072   -1.952292
C   1.166933   0.767098   -0.333771
C   -1.348893   1.703594   -1.016198
C   0.386446   1.416113   0.611941
C   -0.870810   1.891435   0.272708
H   -0.963454   0.870185   -2.951567
H   2.150841   0.414438   -0.048304
H   -2.334217   2.063968   -1.289108
H   0.765842   1.554462   1.618183
H   -1.479099   2.400013   1.011631
C   1.319161   0.927064   -4.366932
H   1.941648   0.575413   -5.196949
H   0.284457   0.744753   -4.673281
C   1.542300   2.406671   -4.110062
H   2.587847   2.624634   -3.883264
H   0.938007   2.756788   -3.270574
H   1.269343   2.998305   -4.987978
