 26
   -205.601471
P   1.630298   -0.257098   -2.973429
C   2.006890   0.974352   -4.291353
H   1.420951   1.862062   -4.029994
H   3.055980   1.282884   -4.276443
C   1.606547   0.474650   -5.671844
H   0.547826   0.207886   -5.698506
H   2.173847   -0.415302   -5.953591
H   1.783118   1.237456   -6.433892
C   0.038234   0.334280   -2.291453
C   -0.349042   -0.196903   -1.060554
C   -0.802104   1.262663   -2.901172
C   -1.548607   0.165168   -0.470050
C   -1.995811   1.641688   -2.304383
C   -2.375741   1.090340   -1.090559
H   0.307682   -0.900336   -0.557704
H   -0.531834   1.698782   -3.855472
H   -1.832583   -0.265408   0.483455
H   -2.633971   2.368868   -2.793841
H   -3.309361   1.385608   -0.625968
C   1.040320   -1.702782   -3.974839
H   0.504587   -2.349478   -3.271383
H   0.276877   -1.295662   -4.644994
C   2.069471   -2.493179   -4.762957
H   2.795450   -2.978387   -4.107486
H   2.619334   -1.848231   -5.451569
H   1.587695   -3.277744   -5.352552
