 26
   -260.712327
P   1.630298   -0.257098   -2.973429
C   1.758853   0.587491   -4.606021
H   1.939359   1.641684   -4.369889
H   2.627527   0.246931   -5.176484
C   0.482868   0.448562   -5.423513
H   -0.378437   0.829363   -4.870423
H   0.277409   -0.596244   -5.667221
H   0.554083   1.002042   -6.362851
C   3.100744   0.352741   -2.070450
C   3.294983   1.734514   -2.055384
C   4.025716   -0.449038   -1.406071
C   4.391092   2.296570   -1.421834
C   5.115104   0.111210   -0.754835
C   5.304653   1.484404   -0.765393
H   2.568137   2.376312   -2.544005
H   3.904794   -1.525681   -1.393666
H   4.525690   3.372232   -1.428653
H   5.821600   -0.530413   -0.240258
H   6.157012   1.921078   -0.257974
C   0.301880   0.737935   -2.145110
H   -0.082949   1.414878   -2.915650
H   -0.505675   0.027422   -1.943303
C   0.663090   1.501131   -0.883338
H   1.409295   2.274091   -1.077824
H   1.065511   0.832475   -0.119498
H   -0.216917   1.996190   -0.464080
