 26
   -264.760898
P   1.630298   -0.257098   -2.973429
C   2.387684   0.384377   -4.525875
H   2.652404   -0.506745   -5.105088
H   1.669142   0.943072   -5.132143
C   3.632349   1.216393   -4.253305
H   4.368297   0.643240   -3.685292
H   3.395082   2.109535   -3.670872
H   4.101499   1.541120   -5.185086
C   -0.141103   0.158978   -3.169657
C   -0.741576   -0.219659   -4.371039
C   -0.922514   0.814956   -2.221548
C   -2.070978   0.070997   -4.629799
C   -2.259173   1.091845   -2.469398
C   -2.836098   0.726361   -3.675748
H   -0.154537   -0.757175   -5.109566
H   -0.490804   1.120448   -1.275908
H   -2.514986   -0.226644   -5.572920
H   -2.851081   1.600100   -1.716452
H   -3.879902   0.944751   -3.869281
C   1.577619   -2.080027   -3.312620
H   2.065193   -2.553770   -2.453600
H   0.520535   -2.354738   -3.243286
C   2.170274   -2.581051   -4.617513
H   3.244090   -2.391487   -4.673175
H   1.700243   -2.096589   -5.475919
H   2.024194   -3.659569   -4.721108
