26
Coordinates from ORCA-job m1_00_PEt2Ph-PBE0-D3-TZ E -731.022516600445
  P           1.63029843784032     -0.25709825420789     -2.97342938845547
  C           3.03545721375540     -0.90147349011632     -1.97067162806935
  H           3.89398621450527     -0.28046678941722     -2.24805689490093
  H           2.87855900626093     -0.74851956832313     -0.89922797489443
  C           3.33107155757344     -2.36313197076308     -2.27382022031620
  H           3.53107542421996     -2.50841162646284     -3.33761253392145
  H           2.48610641951432     -3.00353144588302     -2.01086032850485
  H           4.20163480452920     -2.71368269404146     -1.71435536227995
  C           0.16237712255954     -0.95851879207351     -2.13515529345384
  C          -1.05781524662641     -0.82647517436437     -2.79919256962280
  C           0.17374350413072     -1.60585729102156     -0.90200973817391
  C          -2.23276974300577     -1.30009714460196     -2.23891646523955
  C          -0.99812609457805     -2.09780544018677     -0.34571798304002
  C          -2.20537155199337     -1.94159822584667     -1.00893611116788
  H          -1.08050105663236     -0.34985596762622     -3.77452893492450
  H           1.10348684497394     -1.72984584756620     -0.35966357289385
  H          -3.17048293944237     -1.18046479190324     -2.76956987479940
  H          -0.96702006759443     -2.60203128262582      0.61365369199967
  H          -3.12065238036395     -2.32456110259638     -0.57272892201226
  C           1.53262157962073      1.50035834589305     -2.38801889454753
  H           2.40345015732430      2.00414502809782     -2.82153152251145
  H           0.66066278240069      1.92424357359419     -2.89566797635173
  C           1.44874276944417      1.75149382766147     -0.89305922771334
  H           2.34718468811596      1.41067191146551     -0.37464172347284
  H           0.59285973631174      1.23483252134738     -0.45371884915076
  H           1.33769271215605      2.81896896656826     -0.68464352658137
